@<TRIPOS>MOLECULE
IX1
   16    15     1     0     0
SMALL
RESP Charge
 
 
@<TRIPOS>ATOM
      1 N1         -1.0800   -0.0550   -0.1900 Y1        1 IX1      0.183460
      2 C3         -1.5070    0.7010    0.7980 c1        1 IX1      0.123718
      3 C1         -2.9940   -0.9600    0.4610 c2        1 IX1      0.334154
      4 C2         -2.7340    0.1390    1.2540 c2        1 IX1     -0.251054
      5 O1         -1.9760   -1.0970   -0.3830 os        1 IX1     -0.171293
      6 C4         -4.1070   -1.9180    0.3570 c3        1 IX1     -0.458910
      7 H1         -3.8000   -2.7890   -0.2360 hc        1 IX1      0.192403
      8 H2         -4.4480   -2.2260    1.3540 hc        1 IX1      0.192403
      9 H3         -4.9460   -1.4150   -0.1530 hc        1 IX1      0.192403
     10 C5          1.2980   -1.8380    1.1540 c2        1 IX1     -0.187408
     11 H6          2.0360   -2.6200    1.3780 ha        1 IX1      0.102558
     12 H5          0.6510   -1.7280    2.0380 ha        1 IX1      0.102558
     13 H4          0.6890   -2.1360    0.2910 ha        1 IX1      0.102558
     14 N2         -3.5730    0.6440    2.2850 no        1 IX1      0.777595
     15 O3         -3.1520    1.5720    2.9670 o         1 IX1     -0.381089
     16 O2         -4.6750    0.1250    2.4350 o         1 IX1     -0.390251
@<TRIPOS>BOND
     1    1    2 1
     2    1    5 1
     3    2    4 1
     4    3    4 1
     5    3    5 1
     6    3    6 1
     7    4   14 1
     8    6    7 1
     9    6    8 1
    10    6    9 1
    11   10   11 1
    12   10   12 1
    13   10   13 1
    14   14   15 1
    15   14   16 1
@<TRIPOS>SUBSTRUCTURE
     1 IX1         1 TEMP              0 ****  ****    0 ROOT
