@<TRIPOS>MOLECULE
IX2
   16    15     1     0     0
SMALL
RESP Charge
 
 
@<TRIPOS>ATOM
      1 N1          1.7510    0.1870   -0.1720 Y2        1 IX2     -0.027664
      2 C3          1.9960   -0.5580    0.8870 c1        1 IX2      0.218997
      3 C1          3.3210    1.2700    0.9650 c2        1 IX2      0.436532
      4 C2          3.0030    0.1100    1.6420 c2        1 IX2     -0.296840
      5 O1          2.5600    1.3160   -0.1280 os        1 IX2     -0.152142
      6 C4          4.2670    2.3750    1.1960 c3        1 IX2     -0.436313
      7 H2          4.0800    2.8240    2.1840 hc        1 IX2      0.180814
      8 H3          5.2970    1.9850    1.2030 hc        1 IX2      0.180814
      9 H1          4.1590    3.1330    0.4100 hc        1 IX2      0.180814
     10 C5         -0.7930    1.9170    1.2530 c2        1 IX2     -0.297627
     11 H5         -0.4320    1.7730    2.2830 ha        1 IX2      0.138068
     12 H4          0.0540    2.1460    0.5960 ha        1 IX2      0.138068
     13 H6         -1.4910    2.7660    1.2610 ha        1 IX2      0.138068
     14 N2          3.5860   -0.3230    2.8700 no        1 IX2      0.764498
     15 O3          3.1530   -1.3470    3.3830 o         1 IX2     -0.387864
     16 O2          4.4880    0.3600    3.3430 o         1 IX2     -0.384765
@<TRIPOS>BOND
     1    1    2 1
     2    1    5 1
     3    2    4 1
     4    3    4 1
     5    3    5 1
     6    3    6 1
     7    4   14 1
     8    6    7 1
     9    6    8 1
    10    6    9 1
    11   10   11 1
    12   10   12 1
    13   10   13 1
    14   14   15 1
    15   14   16 1
@<TRIPOS>SUBSTRUCTURE
     1 IX2         1 TEMP              0 ****  ****    0 ROOT
